<Properties StartupItem="FLLMissies\FLLMissies.csproj">
  <MonoDevelop.Ide.Workspace ActiveConfiguration="Debug|x86" />
  <MonoDevelop.Ide.Workbench ActiveDocument="FLLMissies\Main.cs">
    <Files>
      <File FileName="FLLMissies\Main.cs" Line="46" Column="43" />
    </Files>
  </MonoDevelop.Ide.Workbench>
  <MonoDevelop.Ide.DebuggingService.Breakpoints>
    <BreakpointStore>
      <Breakpoint file="C:\Users\Vincende\Google Drive\school\2017 HBO TI\Project Robotica\FLLMissionsHydroDynamics\FLLMissies\Main.cs" line="72" column="23" />
      <Breakpoint file="C:\Users\Vincende\Google Drive\school\2017 HBO TI\Project Robotica\FLLMissionsHydroDynamics\FLLMissies\Main.cs" line="54" column="23" />
      <Breakpoint file="C:\Users\Vincende\Google Drive\school\2017 HBO TI\Project Robotica\FLLMissionsHydroDynamics\FLLMissies\Main.cs" line="43" column="23" />
      <Breakpoint file="C:\Users\Vincende\Google Drive\school\2017 HBO TI\Project Robotica\FLLMissionsHydroDynamics\FLLMissies\Main.cs" line="33" column="11" />
      <Breakpoint file="C:\Users\Vincende\Google Drive\school\2017 HBO TI\Project Robotica\FLLMissionsHydroDynamics\FLLMissies\Main.cs" line="26" column="30" />
    </BreakpointStore>
  </MonoDevelop.Ide.DebuggingService.Breakpoints>
  <MonoDevelop.Ide.DebuggingService.PinnedWatches />
</Properties>