<Properties StartupItem="FLLMissies\FLLMissies.csproj">
  <MonoDevelop.Ide.Workspace ActiveConfiguration="Release|x86" />
  <MonoDevelop.Ide.Workbench ActiveDocument="FLLMissies\Robot\VehiclePrecise.cs">
    <Files>
      <File FileName="FLLMissies\Main.cs" Line="24" Column="17" />
      <File FileName="FLLMissies\Robot\VehiclePrecise.cs" Line="18" Column="29" />
      <File FileName="FLLMissies\Robot\VehicleTacho.cs" Line="1" Column="1" />
      <File FileName="FLLMissies\Constants.cs" Line="1" Column="1" />
    </Files>
  </MonoDevelop.Ide.Workbench>
  <MonoDevelop.Ide.DebuggingService.Breakpoints>
    <BreakpointStore>
      <Breakpoint file="C:\Users\Vincende\Google Drive\school\2017 HBO TI\Project Robotica\FLLMissionsHydroDynamics\FLLMissies\Main.cs" line="72" column="23" />
      <Breakpoint file="C:\Users\Vincende\Google Drive\school\2017 HBO TI\Project Robotica\FLLMissionsHydroDynamics\FLLMissies\Main.cs" line="54" column="23" />
      <Breakpoint file="C:\Users\Vincende\Google Drive\school\2017 HBO TI\Project Robotica\FLLMissionsHydroDynamics\FLLMissies\Main.cs" line="43" column="23" />
      <Breakpoint file="C:\Users\Vincende\Google Drive\school\2017 HBO TI\Project Robotica\FLLMissionsHydroDynamics\FLLMissies\Main.cs" line="33" column="11" />
      <Breakpoint file="C:\Users\Vincende\Google Drive\school\2017 HBO TI\Project Robotica\FLLMissionsHydroDynamics\FLLMissies\Main.cs" line="26" column="30" />
    </BreakpointStore>
  </MonoDevelop.Ide.DebuggingService.Breakpoints>
  <MonoDevelop.Ide.DebuggingService.PinnedWatches />
</Properties>